dsgdb9nsd_131645.xyz
 OpenBabel01081812103D

 16 17  0  0  0  0  0  0  0  0999 V2000
    0.2967    1.1990   -0.7847 O   0  0  0  0  0  0  0  0  0  0  0  0
    0.0894    0.1404    0.1273 C   0  0  0  0  0  0  0  0  0  0  0  0
   -1.3568   -0.2499    0.2096 C   0  0  0  0  0  0  0  0  0  0  0  0
   -2.1895   -0.6969    1.2128 C   0  0  0  0  0  0  0  0  0  0  0  0
   -2.7478   -1.1153    2.5723 C   0  0  0  0  0  0  0  0  0  0  0  0
   -4.1189   -1.3073    1.8124 C   0  0  0  0  0  0  0  0  0  0  0  0
   -3.3717   -0.8829    0.6059 N   0  0  0  0  0  0  0  0  0  0  0  0
   -3.3680   -0.5831   -0.6969 N   0  0  0  0  0  0  0  0  0  0  0  0
   -2.1273   -0.2079   -0.9259 N   0  0  0  0  0  0  0  0  0  0  0  0
   -0.3230    1.0541   -1.5110 H   0  0  0  0  0  0  0  0  0  0  0  0
    0.6914   -0.7418   -0.1510 H   0  0  0  0  0  0  0  0  0  0  0  0
    0.4469    0.4708    1.1089 H   0  0  0  0  0  0  0  0  0  0  0  0
   -2.3316   -2.0321    2.9936 H   0  0  0  0  0  0  0  0  0  0  0  0
   -2.7599   -0.3356    3.3359 H   0  0  0  0  0  0  0  0  0  0  0  0
   -4.4957   -2.3296    1.7524 H   0  0  0  0  0  0  0  0  0  0  0  0
   -4.9184   -0.6187    2.0902 H   0  0  0  0  0  0  0  0  0  0  0  0
  1  2  1  0  0  0  0
  2  3  1  0  0  0  0
  2 12  1  0  0  0  0
  3  4  2  0  0  0  0
  4  5  1  0  0  0  0
  5 13  1  0  0  0  0
  5 14  1  0  0  0  0
  6 16  1  0  0  0  0
  6  5  1  0  0  0  0
  7  4  1  0  0  0  0
  7  6  1  0  0  0  0
  8  7  1  0  0  0  0
  9  8  1  0  0  0  0
  9  3  2  0  0  0  0
 10  1  1  0  0  0  0
 11  2  1  0  0  0  0
 15  6  1  0  0  0  0
M  END
$$$$
